14
0 0
C 0.7040250537620502 1.8334281400075902 0.0
C 0.7040250537620502 0.30256002310464125 0.0
C -0.7040250537620502 -0.30256002310464125 0.0
C -0.7040250537620502 -1.8334281400075902 0.0
H 1.7221461315096702 2.235415170704858 0.0
H -1.7221461315096702 -2.235415170704858 0.0
H 0.1903110145328776 2.229206170230713 0.8833970674595818
H 0.1903110145328776 2.229206170230713 -0.8833970674595818
H -0.1903110145328776 -2.229206170230713 0.8833970674595818
H -0.1903110145328776 -2.229206170230713 -0.8833970674595818
H 1.2543440957865162 -0.06492900495822629 -0.8766050669409182
H 1.2543440957865162 -0.06492900495822629 0.8766050669409182
H -1.2543440957865162 0.06492900495822629 -0.8766050669409182
H -1.2543440957865162 0.06492900495822629 0.8766050669409182
