6
0 0
C -0.04652000355244545 0.6590150503249104 0.0
O -0.04652000355244545 -0.7562530577503798 0.0
H -1.092552083431461 0.977636074656033 0.0
H 0.8684910663213044 -1.0509320802531932 0.0
H 0.4376700334221591 1.0846120828251278 0.8917680680988204
H 0.4376700334221591 1.0846120828251278 -0.8917680680988204
