6
0 1
C -0.966228073784874 -0.6667650509167332 0.0
C 0.0 0.5011440382692752 0.0
H -0.4372810333924549 -1.6260851241740828 0.0
H -1.6106541229957116 -0.5867540448067831 0.8800870672068183
H -1.6106541229957116 -0.5867540448067831 -0.8800870672068183
O 1.1819950902616712 0.4741640362089815 0.0
