7
0 0
O 1.2017960917737467 0.395401030194338 0.0
C 0.0 0.46150903524259607 0.0
H -0.5171950394949925 1.4492431106697514 0.0
C -0.9284070708967165 -0.726346055466567 0.0
H -0.3616910276201105 -1.6587451266681283 0.0
H -1.582518120847139 -0.6823410521061728 0.8792450671425198
H -1.582518120847139 -0.6823410521061728 -0.8792450671425198
