8
0 0
C -0.9297390709984311 -0.09181300701119284 0.0
O -0.7198900549735621 -1.2733550972382697 0.0
O 0.0 0.8718600665785732 0.0
H -1.9250001470003768 0.37883402892921647 0.0
C 1.3607251039101784 0.41037403133773004 0.0
H 1.9776331510196345 1.3084100999152004 0.0
H 1.5602871191494951 -0.19332501476303962 0.8886620678616358
H 1.5602871191494951 -0.19332501476303962 -0.8886620678616358
