8
0 1
C 1.0410760795005518 -0.6080790464352437 0.0
C 0.0 0.5110380390248187 0.0
O -1.3029550994986363 0.10923500834160159 0.0
H 0.13725201048108865 1.1919140910191224 0.8663860661605555
H 0.13725201048108865 1.1919140910191224 -0.8663860661605555
H 2.056450157038404 -0.19781101510560511 0.0
H 0.9231150704925994 -1.238826094601502 0.8858420676462885
H 0.9231150704925994 -1.238826094601502 -0.8858420676462885
