10
0 0
S -2.000000154965405e-06 0.24437001866102742 -0.4372920333932939
O -2.100000160332378e-05 1.485557113442828 0.3873070295762472
C 1.3579241036962795 -0.8141940621749729 0.17863501364125497
C -1.357903103694676 -0.8142250621773405 0.17863401364117484
H 1.2699900969813054 -0.917436070058928 1.2629930964469882
H -2.2908011749343427 -0.30560802333740056 -0.07087900541259133
H 1.322650101002626 -1.788877136605504 -0.31481502404047806
H 2.2908151749354118 -0.305564023334039 -0.07087700541244164
H -1.3226091009994942 -1.788902136607412 -0.31482502404124235
H -1.2699780969803862 -0.9174780700621347 1.262992096446908
