9
0 0
C -1.3730871048541868 -0.296828022666924 -0.0005790000442142427
C 0.08108400619188531 0.15445801179500457 -0.007572000578226896
O 0.41386803160454927 1.3218531009417638 0.004445000339438993
N 0.9941540759174081 -0.8658640661206914 -0.027530002102295396
H 1.9665151501706228 -0.6280430479597718 0.0815570062280028
H 0.7227650551931047 -1.8269561395133613 0.08298500633705527
H -1.5418191177392089 -1.1559300882712447 -0.6565950501401115
H -1.6656931271987043 -0.5851330446830013 1.0150930775163944
H -1.9997781527107155 0.5365100409699619 -0.31698702420634156
