8
0 0
C -0.03819700291686779 -0.39679903030109237 0.7415110566246242
N -0.03819700291686779 0.8741800667557347 0.0
C -0.03819700291686779 -0.39679903030109237 -0.7415110566246242
H 0.897092068505385 1.2719080971277688 0.0
H -0.9549170729211225 -0.6070220463545273 1.2849230981216457
H -0.9549170729211225 -0.6070220463545273 -1.2849230981216457
H 0.8692440663788047 -0.7077690540479544 1.2526470956569251
H 0.8692440663788047 -0.7077690540479544 -1.2526470956569251
