7
0 0
C 0.0 0.0 0.8604770657093221
C 0.0 0.6452880492766646 -0.5007600382399505
C 0.0 -0.6452880492766646 -0.5007600382399505
H -0.9118890696353413 0.0 1.4622411116623297
H 0.9118890696353413 0.0 1.4622411116623297
H 0.0 1.5765431203908662 -1.039113079350652
H 0.0 -1.5765431203908662 -1.039113079350652
