10
0 1
C 0.011384000869325788 0.5333000407248303 0.0
C 0.011384000869325788 -0.19692101503764037 1.299514099235868
C 0.011384000869325788 -0.19692101503764037 -1.299514099235868
H -0.23440101789976006 1.5911881215092143 0.0
H 0.2678030204504615 0.45795503497119666 2.1382841632875653
H 0.2678030204504615 0.45795503497119666 -2.1382841632875653
H -0.9747450744352665 -0.6376890486963748 1.5317521169704542
H 0.7216890551109398 -1.0342370789783022 1.2918700986521472
H -0.9747450744352665 -0.6376890486963748 -1.5317521169704542
H 0.7216890551109398 -1.0342370789783022 -1.2918700986521472
