11
0 0
C 0.0 0.0 0.5863160447733378
C 0.0 1.276284097461938 -0.25969401983122703
C 0.0 -1.276284097461938 -0.25969401983122703
H -0.8762820669162539 0.0 1.2467360952055424
H 0.8762820669162539 0.0 1.2467360952055424
H 0.0 2.17437016604323 0.3662150279655833
H 0.0 -2.17437016604323 0.3662150279655833
H 0.8833130674531685 1.3212251008938032 -0.9068690692519926
H -0.8833130674531685 1.3212251008938032 -0.9068690692519926
H -0.8833130674531685 -1.3212251008938032 -0.9068690692519926
H 0.8833130674531685 -1.3212251008938032 -0.9068690692519926
