10
0 0
C 0.5996070457882878 1.747634133456032 0.0
C 0.5996070457882878 0.4112840314072233 0.0
C -0.5996070457882878 -0.4112840314072233 0.0
C -0.5996070457882878 -1.747634133456032 0.0
H 1.5196181160438575 2.320869177230453 0.0
H -0.3269420249665454 2.314534176746688 0.0
H 1.547592118180058 -0.12498000954395308 0.0
H -1.547592118180058 0.12498000954395308 0.0
H 0.3269420249665454 -2.314534176746688 0.0
H -1.5196181160438575 -2.320869177230453 0.0
