12
0 0
C 0.0 0.0 1.4569981112619539
C 0.0 0.0 0.12457000951264026
H 0.0 0.9232490705028339 2.027824154852415
H 0.0 -0.9232490705028339 2.027824154852415
C 0.0 1.2749650973612123 -0.6779470517706299
H 0.0 2.159690164922204 -0.036455002783845586
H 0.8783940670775319 1.3272261013520643 -1.3341971018843988
H -0.8783940670775319 1.3272261013520643 -1.3341971018843988
C 0.0 -1.2749650973612123 -0.6779470517706299
H 0.0 -2.159690164922204 -0.036455002783845586
H -0.8783940670775319 -1.3272261013520643 -1.3341971018843988
H 0.8783940670775319 -1.3272261013520643 -1.3341971018843988
