10
0 0
H 0.0 0.0 2.123735162176544
N 0.0 0.0 1.1193100854748022
C 0.0 1.122987085755592 0.33097402527444175
C 0.0 -1.122987085755592 0.33097402527444175
C 0.0 0.7116930543476043 -0.9814230749452239
C 0.0 -0.7116930543476043 -0.9814230749452239
H 0.0 2.1082591609947365 0.7685640586904922
H 0.0 -2.1082591609947365 0.7685640586904922
H 0.0 1.3583721037304943 -1.8453231409159354
H 0.0 -1.3583721037304943 -1.8453231409159354
