13
0 0
C 0.0 0.0 0.0
C 0.0 0.7641010583496797 1.2692350969236499
C 0.0 -0.7641010583496797 1.2692350969236499
C 0.7641010583496797 0.0 -1.2692350969236499
C -0.7641010583496797 0.0 -1.2692350969236499
H -0.9121160696526732 1.268675096880884 1.573607120166663
H 0.9121160696526732 1.268675096880884 1.573607120166663
H -0.9121160696526732 -1.268675096880884 1.573607120166663
H 0.9121160696526732 -1.268675096880884 1.573607120166663
H 1.268675096880884 -0.9121160696526732 -1.573607120166663
H 1.268675096880884 0.9121160696526732 -1.573607120166663
H -1.268675096880884 -0.9121160696526732 -1.573607120166663
H -1.268675096880884 0.9121160696526732 -1.573607120166663
