11
0 0
N 0.0 0.0 1.4174501082419178
C 0.0 0.0 -1.3825211055746016
C 0.0 1.1395600870211675 0.7204070550130411
C 0.0 -1.1395600870211675 0.7204070550130411
C 0.0 -1.1955850912994523 -0.6713060512634995
C 0.0 1.1955850912994523 -0.6713060512634995
H 0.0 0.0 -2.4676651884403578
H 0.0 2.0568021570652864 1.3051180996638103
H 0.0 -2.0568021570652864 1.3051180996638103
H 0.0 -2.153631164459518 -1.1794050900638853
H 0.0 2.153631164459518 -1.1794050900638853
