12
0 0
C 0.0 1.3935671064181194 0.0
C 1.2068640921607614 0.6967830532090222 0.0
C 1.2068640921607614 -0.6967830532090222 0.0
C 0.0 -1.3935671064181194 0.0
C -1.2068640921607614 -0.6967830532090222 0.0
C -1.2068640921607614 0.6967830532090222 0.0
H 0.0 2.478754189287157 0.0
H 2.1466641639274933 1.2393770946435785 0.0
H 2.1466641639274933 -1.2393770946435785 0.0
H 0.0 -2.478754189287157 0.0
H -2.1466641639274933 -1.2393770946435785 0.0
H -2.1466641639274933 1.2393770946435785 0.0
