5
0 1
C 0.6831840521705514 0.028205002153842137 -0.07323200559227547
O -0.6697470511444477 -0.1253120095693069 0.025041001912227065
H -1.0907330832925546 0.7346040560971798 -0.06963100531728994
H 1.1205570855700289 0.9866430753438415 0.19351201477731989
H 1.2290490938548941 -0.8879780678094049 0.11518200879573681
