7
0 0
C -1.319773100782923 0.3232640246856757 0.0
O 0.0 0.8862260676756132 0.0
H -1.988783151871094 1.1829380903336815 0.0
H -1.4799471130144262 -0.29237602232695054 0.8896140679343357
H -1.4799471130144262 -0.29237602232695054 -0.8896140679343357
N 1.0426400796199884 -0.038140002912517415 0.0
O 0.6961050531572457 -1.1700750893514125 0.0
