7
0 0
C 0.05172900395022396 0.7037480537408971 0.0
N 0.05172900395022396 -0.760919058106691 0.0
H -0.942656071984826 1.180134090119558 0.0
H -0.4572480349172075 -1.102603084198992 0.8096050618245404
H -0.4572480349172075 -1.102603084198992 -0.8096050618245404
H 0.5923400452333518 1.064508081289911 0.8811120672850871
H 0.5923400452333518 1.064508081289911 -0.8811120672850871
